[Format]      =  4.0
[Frequency]   =  60
[Precision]   =  1e-008
[MinAngle]    =  30
[Depth]       =  1
[LengthUnits] =  meters
[ProblemType] =  planar
[Coordinates] =  cartesian
[ACSolver]    =  0
[Comment]     =  "Add comments here."
[PointProps]   = 0
[BdryProps]   = 1
  <BeginBdry>
    <BdryName> = "Borda"
    <BdryType> = 0
    <A_0> = 0
    <A_1> = 0
    <A_2> = 0
    <Phi> = 0
    <c0> = 0
    <c0i> = 0
    <c1> = 0
    <c1i> = 0
    <Mu_ssd> = 0
    <Sigma_ssd> = 0
  <EndBdry>
[BlockProps]  = 3
  <BeginBlock>
    <BlockName> = "Air"
    <Mu_x> = 1
    <Mu_y> = 1
    <H_c> = 0
    <H_cAngle> = 0
    <J_re> = 0
    <J_im> = 0
    <Sigma> = 0
    <d_lam> = 0
    <Phi_h> = 0
    <Phi_hx> = 0
    <Phi_hy> = 0
    <LamType> = 0
    <LamFill> = 1
    <NStrands> = 0
    <WireD> = 0
    <BHPoints> = 0
  <EndBlock>
  <BeginBlock>
    <BlockName> = "M-45 Steel"
    <Mu_x> = 4689
    <Mu_y> = 4689
    <H_c> = 0
    <H_cAngle> = 0
    <J_re> = 0
    <J_im> = 0
    <Sigma> = 2.8999999999999999
    <d_lam> = 0.63500000000000001
    <Phi_h> = 0
    <Phi_hx> = 0
    <Phi_hy> = 0
    <LamType> = 0
    <LamFill> = 0.97999999999999998
    <NStrands> = 0
    <WireD> = 0
    <BHPoints> = 47
      0	0
      0.050000000000000003	19.965330000000002
      0.10000000000000001	29.906288
      0.14999999999999999	36.398771000000004
      0.20000000000000001	41.371668999999997
      0.25	45.590262000000003
      0.29999999999999999	49.424858999999998
      0.34999999999999998	53.082279999999997
      0.40000000000000002	56.692664000000001
      0.45000000000000001	60.347374000000002
      0.5	64.117637000000002
      0.55000000000000004	68.064755000000005
      0.59999999999999998	72.246370999999996
      0.65000000000000002	76.720885999999993
      0.69999999999999996	81.551123000000004
      0.75	86.807958999999997
      0.80000000000000004	92.574503000000007
      0.84999999999999998	98.951520000000002
      0.90000000000000002	106.06504700000001
      0.94999999999999996	114.077777
      1	123.20691100000001
      1.05	133.75338500000001
      1.1000000000000001	146.15173799999999
      1.1499999999999999	161.05866800000001
      1.2	179.51663400000001
      1.25	203.267945
      1.3	235.37974800000001
      1.3500000000000001	281.52494799999999
      1.3999999999999999	352.64841200000001
      1.45	470.42617899999999
      1.5	677.45154100000002
      1.55	1051.0680359999999
      1.6000000000000001	1703.275165
      1.6499999999999999	2726.5179589999998
      1.7	4137.9810520000001
      1.75	5832.6197039999997
      1.8	7939.5529399999996
      1.8500000000000001	10565.294335000001
      1.8999999999999999	13843.912965
      1.95	17970.359698
      2	23423.776431999999
      2.0499999999999998	32234.325959999998
      2.1000000000000001	51366.778966999998
      2.1499999999999999	84577.843500999996
      2.2000000000000002	121162.49332199999
      2.25	160127.812767
      2.2999999999999998	202470.28224500001
  <EndBlock>
  <BeginBlock>
    <BlockName> = "20 AWG"
    <Mu_x> = 1
    <Mu_y> = 1
    <H_c> = 0
    <H_cAngle> = 0
    <J_re> = 0
    <J_im> = 0
    <Sigma> = 58
    <d_lam> = 0
    <Phi_h> = 0
    <Phi_hx> = 0
    <Phi_hy> = 0
    <LamType> = 3
    <LamFill> = 1
    <NStrands> = 1
    <WireD> = 0.812049969500513
    <BHPoints> = 0
  <EndBlock>
[CircuitProps]  = 1
  <BeginCircuit>
    <CircuitName> = "Enrolamento"
    <TotalAmps_re> = 1
    <TotalAmps_im> = 0
    <CircuitType> = 1
  <EndCircuit>
[NumPoints] = 25
3.1000000000000001	8.5999999999999996	0	0
6	5	0	0
7	5	0	0
6	4	0	0
7	4	0	0
7	4.5499999999999998	0	0
7	4.4500000000000002	0	0
6.25	4.25	0	0
6.25	4.75	0	0
6.75	4.5499999999999998	0	0
6.75	4.25	0	0
6.75	4.4500000000000002	0	0
6.75	4.75	0	0
5.5	5.5500000000000007	0	0
5.5	3.5500000000000003	0	0
7.5	3.5500000000000003	0	0
7.5	5.5500000000000007	0	0
6.2599999999999998	4.7400000000000002	0	0
6.2599999999999998	4.2599999999999998	0	0
6.29	4.7400000000000002	0	0
6.29	4.2599999999999998	0	0
5.9900000000000002	4.7400000000000002	0	0
5.96	4.7400000000000002	0	0
5.9900000000000002	4.2599999999999998	0	0
5.96	4.2599999999999998	0	0
[NumSegments] = 24
1	2	-1	0	0	0
4	3	-1	0	0	0
1	3	-1	0	0	0
2	5	-1	0	0	0
6	4	-1	0	0	0
8	7	-1	0	0	0
10	7	-1	0	0	0
11	10	-1	0	0	0
6	11	-1	0	0	0
5	9	-1	0	0	0
12	9	-1	0	0	0
12	8	-1	0	0	0
13	14	-1	1	0	0
14	15	-1	1	0	0
15	16	-1	1	0	0
16	13	-1	1	0	0
22	21	-1	0	0	0
17	19	-1	0	0	0
19	20	-1	0	0	0
20	18	-1	0	0	0
18	17	-1	0	0	0
22	24	-1	0	0	0
24	23	-1	0	0	0
23	21	-1	0	0	0
[NumArcSegments] = 0
[NumHoles] = 0
[NumBlockLabels] = 4
6.8000000000000007	4.1000000000000005	2	-1	0	0	0	1	0
6.2800000000000002	4.4400000000000004	3	-1	1	0	0	100	0
5.9699999999999998	4.7000000000000002	3	-1	1	0	0	-100	0
7.2000000000000002	4.7700000000000005	1	-1	0	0	0	1	0
